Version 4
SHEET 1 3516 888
WIRE 1504 -320 1504 -368
WIRE 1456 -304 640 -304
WIRE 144 -240 144 -352
WIRE -96 -208 -208 -208
WIRE 112 -208 -96 -208
WIRE 112 -176 -96 -176
WIRE 640 -176 640 -304
WIRE 672 -176 640 -176
WIRE 816 -176 752 -176
WIRE 1024 -176 944 -176
WIRE 640 -144 640 -176
WIRE 816 -144 640 -144
WIRE 1168 -144 944 -144
WIRE 1504 -128 1504 -224
WIRE 1504 -128 1456 -128
WIRE 1600 -128 1504 -128
WIRE 1728 -128 1680 -128
WIRE 1760 -128 1728 -128
WIRE 1872 -128 1840 -128
WIRE 128 -112 128 -144
WIRE 144 -112 144 -144
WIRE 144 -112 128 -112
WIRE 160 -112 160 -144
WIRE 160 -112 144 -112
WIRE 816 -112 608 -112
WIRE 1248 -112 1248 -144
WIRE 1248 -112 944 -112
WIRE 160 -96 160 -112
WIRE -208 -80 -208 -128
WIRE -96 -80 -96 -176
WIRE 816 -80 752 -80
WIRE 1088 -80 944 -80
WIRE 1152 -80 1088 -80
WIRE 1728 -64 1728 -128
WIRE 608 -48 592 -48
WIRE 816 -48 608 -48
WIRE 1024 -48 944 -48
WIRE 1504 -48 1504 -128
WIRE 1024 -16 1024 -48
WIRE -96 32 -96 0
WIRE 1248 32 1248 -112
WIRE 1456 32 1248 32
WIRE 1728 80 1728 0
WIRE 1504 112 1504 48
WIRE 32 208 32 160
WIRE 32 320 32 288
FLAG -208 -80 0
FLAG -96 32 0
FLAG -96 -208 Carrier
FLAG -96 -176 Audio
FLAG 192 -208 PWM
FLAG 192 -176 PWM_INV
FLAG 32 160 VCC
FLAG 160 -96 0
FLAG 32 320 0
FLAG 144 -352 VCC
FLAG 1088 -16 0
FLAG 1504 112 0
FLAG 1152 -80 VCC
FLAG 1024 -16 0
FLAG 1024 -176 PWM
FLAG 592 -48 HS
FLAG 752 -80 PWM_INV
FLAG 1456 -128 HS
FLAG 1504 -368 VCC
FLAG 1728 80 0
FLAG 1872 -128 Vout
SYMBOL voltage -96 -96 R0
WINDOW 0 42 58 Left 2
WINDOW 3 42 114 Left 2
WINDOW 123 42 86 Left 2
WINDOW 39 0 0 Left 0
SYMATTR InstName AUDIO1
SYMATTR Value SINE(0 1 {freq/10})
SYMBOL voltage -208 -224 R0
WINDOW 0 -380 78 Left 2
WINDOW 3 -378 111 Left 2
WINDOW 123 0 0 Left 0
WINDOW 39 0 0 Left 0
SYMATTR InstName CARRIER1
SYMATTR Value PULSE(-3.3, 3.3, 0, {0.5/freq}, {0.5/freq}, 0, {1/freq})
SYMBOL Comparators\\LT1016 144 -256 R0
SYMATTR InstName U1
SYMBOL Misc\\battery 32 192 R0
WINDOW 123 0 0 Left 0
WINDOW 39 0 0 Left 0
SYMATTR InstName V1
SYMATTR Value 5
SYMBOL nmos 1456 -48 R0
SYMATTR InstName M1
SYMBOL cap 1072 -80 R0
SYMATTR InstName C2
SYMATTR Value 1µ
SYMBOL LM5113_TRANS 880 -112 R0
WINDOW 39 -2 143 Top 2
SYMATTR InstName U2
SYMBOL cap 592 -112 R0
SYMATTR InstName C1
SYMATTR Value 0.1µ
SYMBOL res 1264 -160 R90
WINDOW 0 0 56 VBottom 2
WINDOW 3 32 56 VTop 2
SYMATTR InstName R1
SYMATTR Value 10
SYMBOL res 768 -192 R90
WINDOW 0 0 56 VBottom 2
WINDOW 3 32 56 VTop 2
SYMATTR InstName R2
SYMATTR Value 10
SYMBOL nmos 1456 -224 M180
SYMATTR InstName M3
SYMBOL ind 1584 -112 R270
WINDOW 0 32 56 VTop 2
WINDOW 3 5 56 VBottom 2
SYMATTR InstName L1
SYMATTR Value 90µ
SYMBOL cap 1744 0 R180
WINDOW 0 24 56 Left 2
WINDOW 3 24 8 Left 2
SYMATTR InstName C5
SYMATTR Value 0.7µ
SYMBOL res 1856 -144 R90
WINDOW 0 0 56 VBottom 2
WINDOW 3 32 56 VTop 2
SYMATTR InstName R5
SYMATTR Value 8
TEXT -544 -352 Left 2 !.tran {100/freq}
TEXT -552 -408 Left 2 !.param freq=1k
TEXT -64 400 Left 2 ;PWM Generator
TEXT 704 872 Left 2 !.include C:\\Users\\calvi\\Documents\\LTspice\\LTSpice_components\\lib\\sub\\LM5113.lib
